tests/data/107bus-dc/107barras_se_s.pwf
TITU
Sudeste exportando 1500MW pelo elo CC
DOPC IMPR
(Op) E (Op) E (Op) E (Op) E (Op) E (Op) E (Op) E (Op) E (Op) E (Op) E
QLIM L VLIM L CREM L CTAP L STEP L NEWT L MOCT L MOCG L MOCF L RCVG L
RMON L FILE L CONT L CELO L
99999
DCTE
(Mn) ( Val) (Mn) ( Val) (Mn) ( Val) (Mn) ( Val) (Mn) ( Val) (Mn) ( Val)
BASE   100. DASE   100. TEPA     1. EXST     4. TETP     5. TBPA     5.
TLPP     1. TEPR     1. QLST     4. TLPR     1. TLPQ     2. TSBZ    .01
TSBA     5. ASTP    .05 VSTP     5. TLVC     .1 TLTC    .01 TSFR  .1E-7
ZMAX   500. TLPV     .5 VDVM   200. VDVN    40. TUDC   .001 TADC    .01
PGER    30. TPST     2. VFLD    70. ZMIN   .001 HIST    470 LFIT     10
ACIT     90 LFCV      1 DCIT     10 VSIT     10 LPIT     50 LFLP     10
PDIT     10 LCRT     24 LPRT     60 CSTP   500.
ICIT     30 DMAX      5 FDIV     2. ICMN    .05 VART     5. TSTP     32
ICMV     1. APAS    90. CPAR    70. VAVT     2. VAVF     5. VMVF    15.
VPVT     2. VPVF     5. VPMF    10. VSVF    20. VINF     1. VSUP     1.
99999
DBAR
(Num)OETGb(   nome   )Gl( V)( A)( Pg)( Qg)( Qn)( Qm)(Bc  )( Pl)( Ql)( Sh)Are(Vf)M(1)(2)(3)(4)(5)(6)(7)(8)(9)(10
   12  1 ALCBARRET-2GR D1000-24. 300.-140.-195. 195.                     11000
   16  1 AFURNAS---5GR D1000-29. 800.-15.8-410. 410.                     11000
   18  2 AITUMBIAR-6GR D1010-24.1171.-441.-11701170.                     11000
   20  1 AMARIMBON-5GR D1010-22. 930.-177.-450. 450.                     11000
   21  1 AMANSO----3GR D1040-66. 130.-9.17 -78.  78.                     31000
   22  1 AM.MOR.A--3GR D1000-20. 150.-8.26 -77.  77.                     11000
   35  1 ACORUMBA--2GR D1000-27. 200.-37.7-125. 125.                     11000
   48  1 AIBIUNA---4CS D1000-52.   0.-432.-10801200.                     11000
   86    DIBIUNA---345 C1031-52.                           66.  1.2      11000
  100    BMARIMBON-500 A1039-28.                                         11000
  101    BARARAQUA-500 A1038-39.                                   -200. 11000
  102    BPOCOS----500 A1027-48.                                   -100. 11000
  103    BCAMPINAS-500 A1052-50.                                         11000
  104    BC.PAULIS-500 A1028-58.                          910. 235.      11000
  106    BADRIANO--500 A1014-58.                                   -100. 11000
  120    DP.CALDAS-345 C1017-46.                          180.  90.      11000
  122    BIBIUNA---500 A1070-52.                          200.  38.      11000
  123    DCAMPINAS-345 C1011-52.                          450. 175.      11000
  126    DGUARULHOS345 C1028-52.                          290.  95.      11000
  131    DM.MORAES-345 C1016-28.                                         11000
  134    DLBARRETO-345 C1019-26.                                         11000
  136    DFURNAS---345 C1010-36.                           54.  23.      11000
  138    DITUTINGA-345 C1003-48.                           72.  34.      11000
  140    DADRIANO--345 C 985-59.                          700. 250.      11000
  210    BITUMBIARA500 A1042-28.                                         11000
  213    DMARIMBON-345 C1036-28.                           93.  39.      11000
  216    DPCOLOMBIA345 C1040-27.                           53.  25.      11000
  217    DITUMBIARA345 C1043-33.                          364.  58.      11000
  218    DBANDEIRA-345 C1015-40.                          600. 200.      11000
  219    DB.SUL----345 C1018-39.                                         11000
  220    DCORUMBA--345 C1046-32.                                         11000
  225    EITUMBIARA230 C1000-35.                                         11000
  228    EB.SUL----230 C1005-40.                           86.  34.      11000
  231    ER.VERDE--230 C1005-50.                          89.7 31.9      31000
  233    BSAMAMBAI-500 A1028-36.                                         11000
  234    DSAMAMBAI-345 C1016-39.                         1000. 350.      11000
  300  1 AEMBORCAC-4GR D1020-12.1184.-59.7-592. 592.                     11000
  301  1 AJAGUARA--3GR D1010-17. 300.-96.8-160. 160.                     11000
  302  1 AN.PONTE--3GR D1020-15. 400.-91.8-255. 255.                     11000
  303  1 AS.SIMAO--6GR D1020-6.51680.-12.2-855. 855.                     11000
  305  1 AV.GRANDE-4GR D1000-21. 300.-30.8-190. 190.                     11000
  320    BEMBORCAC-500 A1040-21.                                         11000
  325    BJAGUARA--500 A1038-21.                                         11000
  326    DJAGUARA--345 C1025-25.                          274. 104.      11000
  360    BNPONTE---500 A1040-19.                                         11000
  370    BSSIMAO---500 A1036-16.                                         11000
  396    DVGRANDE--345 C1034-25.                                         11000
  500  1 AA.VERMEL-4GR D1020-16. 800.7.986-464. 464.                     11000
  535    BAVERMELHA500 A1022-20.                                         11000
  536    CAVERMELH-440 B 996-26.                          700. 150.      11000
  800  1 AGBMUNHOZ-2GR D1020-33. 600.-46.8-415. 415.                     21000
  808  1 ASCAXIAS--2GR D1020-23. 600.44.65-310. 310.                     21000
  810  1 ASSEGREDO-2GR D1020-29. 600.-196.-315. 315.                     21000
  814    EBATEIAS--230 C1000-54.                         735.4 191.      21000
  824    BGBMUNHOZ-500 A1057-39.                                         21000
  834    ES.MATEUS-230 C 999-48.                          13.4  4.2      21000
  839    ECASCAVEL-230 C 999-29.                                         21000
  840    FCASCAVEL-138 D 986-32.                          159.  36.      21000
  848    FFCHOPIM--138 D 999-28.                           94.  18.      21000
  856    BSEGREDO--500 A1042-32.                                         21000
  895    BBATEIAS--500 A1076-52.                                         21000
  896    BCASCAVELO500 A1030-27.                                         21000
  897    BSCAXIAS--500 A1042-26.                                         21000
  898    EFCHOPIM--230 C1012-24.                                         21000
  904  1 AITA------3GR D1020-36. 600.-300.-435. 435.                     21000
  915  1 AMACHADIN-2GR D1020-33. 700.-163.-360. 360.                     21000
  919  1 ASOSOR1A4-4GR D1000-16. 700.86.62-384. 384.                     21000
  925  1 ASSANTIAG-2GR D1020-23. 600.35.85-355. 355.                     21000
  933    BAREIA----500 A1057-39.                                         21000
  934    EAREIA----230 C1000-39.                          237.  59.      21000
  938    BBLUMENAU-500 A1074-55.                                         21000
  939    EBLUMENAU-230 C1000-58.                         1149.53.06      21000
  955    BCNOVOS---500 A1074-44.                                         21000
  959    BCURITIBA-500 A1066-52.                                    100. 21000
  960    ECURITIBA-230 C1000-55.                         844.7469.1      21000
  964    BCAXIAS---500 A1051-51.                                         21000
  965    ECAXIAS---230 C1000-53.                         755.656.24      21000
  976    BGRAVATAI-500 A1026-54.                                         21000
  995    BITA------500 A1056-40.                                         21000
 1015    EJOINVILLE230 C1002-57.                           70.   2.      21000
 1030    BMACHADIN-500 A1063-41.                                         21000
 1047    ESOSORIO--230 C1017-23.                                         21000
 1060    BSSANTIAG-500 A1043-28.                                         21000
 1210    EGRAVATAI-230 C1000-56.                         1228. 425.      21000
 1503    BITAJUBA--500 A1026-55.                                         11000
 1504    FITAJUBA--138 D1006-59.                          145.  63.      11000
 2458    ECASCAVEL-230 C1000-29.                          403. 126.      21000
 4501    EB.PEIXE--230 C1029-62.                          31.4  7.1 -45. 31000
 4521    EITIQUIRA-230 C1040-68.                                         31000
 4522    ERONDONOP-230 C1044-70.                                         31000
 4523  1 AITIQUIR--2GR D1000-62.  50.-16.9 -30.  30.                     31000
 4530    ACOXIPO-CE-12 D1040-75.                                         31000
 4532    ECOXIPO---230 C1052-75.                                         31000
 4533    FCOXIPO---138 D1021-75.                          75.4 16.1      31000
 4542    ENOBRES---230 C1046-75.                                         31000
 4552    EN.MUTUM--230 C1019-82.                          12.6  1.2      31000
 4562    ESORRISO--230 C 981-89.                          23.8  7.4      31000
 4572    ELUCAS-RV-230 C 995-87.                           18.  6.4      31000
 4582    ESINOP----230 C 964-92.                          62.4 15.9      31000
 4592    EMANSO----230 C1049-70.                                         31000
 4596  1 ACBA--GAS-2GR D1000-70. 230.-46.5-160. 160.                     31000
 4623    FRONDONOP-138 D1030-73.                         128.240.76      31000
 4703    FCUIABA---138 D1010-76.                         182.129.75      31000
 4804  1 AGUAPORE--2GR D1000-77.  50.-20.6 -40.  40.                     31000
 4805    FGUAPORE--138 D1030-80.                                         31000
 4807    FJAURU----138 D1031-82.                         128.9 36.3      31000
 4862    EJAURU----230 C1054-80.                                    -30. 31000
 9048  1  AC_INVER-4CS C1043-28.   0.-289.-10801200. 9086                91000
 9049  1  AC_RETIF-4CS C1042-28.   0.598.5-10801200. 9085                91000
 9085     AC_RETIF-500 A1042-28.                                    765. 91000
 9086     AC_INVER-500 A1043-28.                                    430. 91000
99999
DLIN
(De )d O d(Pa )NcEP ( R% )( X% )(Mvar)(Tap)(Tmn)(Tmx)(Phs)(Bc  )(Cn)(Ce)Ns(Cq)(1)(2)(3)(4)(5)(6)(7)(8)(9)(10
  86         48 1         .71475         1.                    10501050
  86        122 1          1.913         1.                     750 803
  86        122 2          1.913         1.                     750 803
 100         20 1          1.264         1.                    15201520
 100        101 1     .172  2.72 231.4                         16652460
 100        101 2     .171   2.7 230.2                         16652460
 100        210 1     .209 2.935 254.6                         17321732
 100        213 1          2.357         1.                     560 560
 100        535 1     .153   2.4 203.8                         16651665
 101        102 1     .156  2.46 208.5                         16651665
 101        103 1     .152  2.39 202.6                         16651665
 102        120 1          2.403         1.                     560 560
 102       1503 1      .11  1.91161.85                         16651665
 103        123 1          2.419         1.                     560 560
 104        103 1     .196   3.1 264.9                         16651665
 104       1503 1      .05   .82 69.36                         16651665
 106        104 1     .152  2.39 202.7                         16651665
 106        104 2     .152  2.39 203.1                         16651665
 106        140 1          2.923         1.                     560 560
 106        140 2          2.668         1.                     560 560
 122        103 1     .105 1.619136.35                         16651665
 123        120 1     .359 3.945 66.68                          598 598
 126         86 1     .109 1.826 51.18                         15321532
 126         86 2     .109 1.824 51.18                         15321532
 126        120 1       .6  5.95  92.8                          598 598
 126        120 2     .606  6.02  93.8                          598 598
 131         22 1         8.8333         1.                     378 378
 134         12 1          1.335       .999                    11361136
 134        131 1     .092  1.01  16.9                          717 717
 134        396 1      .32 3.509 59.24                          699 827
 136         16 1          1.536         1.                    12801280
 136        120 1     .436   4.3  66.6                          598 598
 136        120 2     .436   4.3  66.6                          598 598
 136        131 1     .348  3.42  52.8                          717 717
 136        134 1     .375  4.13  69.9                          598 598
 136        138 1     .649  6.46 100.8                          728 896
 136        138 2     .558  6.19 105.7                          766 896
 140        138 1     .652   6.5 101.4                          728 896
 140        138 2     .558  6.19 105.7                          766 896
 210         18 1         .66667         1.                    24002400
 210        217 1           1.72         1.                     600 600
 210        217 2           1.72         1.                     600 600
 210        370 1     .147  2.32 196.6                         16651665
 213        216 1 T   .219  2.42  40.7                          598 598
 216        396 1     .129 1.414 23.77                          699 827
 217        216 1     .565 6.248106.73                          717 717
 217        218 1     .507  5.61  95.6                          766 766
 217        218 2     .507  5.61  95.6                          766 766
 218        234 1      .43 4.799  82.2                          639 639
 218        234 2      .43 4.799  82.2                          639 639
 219        234 1     .035  .433  7.34                          639 639
 219        234 2     .035  .433  7.34                          639 639
 220         35 1         4.4965      1.025                     417 417
 220        217 1     .226 2.39643.235                          766 766
 220        219 1     .726 7.704138.01                          766 766
 225        217 1          2.721      .9531  .95 1.11       225 225 22517
 225        217 2          2.938      .9531  .95 1.11       225 560 56017
 225        231 1      4.1 19.76 36.08                          197 197
 225        231 2     1.27 13.62 49.47                          197 197
 228        219 1          3.595         1.                     225 225
 231       4501 1     4.51 21.69 40.25                          197 197
 231       4501 2     1.49 16.09  55.4                          197 197
 233        210 1      .28  3.99355.36                         25982598
 233        320 1      .27  3.87344.03                         25982598
 234        233 1          1.113         1.                    10501050
 234        233 2             1.         1.                    10501050
 320        210 1     .125 1.937149.96                         19481948
 320        300 1         1.3567         1.                    14001400
 320        360 1     .082 1.256 98.99                         20782078
 325        301 1         2.6325         1.                     500 500
 325        326 1           2.16         1.                     400 483
 325        326 2           2.16         1.                     400 483
 325        360 1       .1 1.519119.67                         22512251
 325        370 1      .28  4.84 419.5                         22052205
 326        134 1      .07   .7612.287                          860 932
 326        396 1      .24  2.74 45.47                          623 699
 360        302 1         1.9367         1.                     537 537
 370        303 1         1.0575         1.                    17401740
 370        535 1    .09311.3758 112.3                         22052205
 396        305 1            2.2      1.025                     450 450
 535        500 1          1.025         1.                    15001500
 536        535 2           1.42         1.                     750 900
 814        895 1     .032 1.146      .9404   .9  1.1       814 600 60019
 814        895 2      .031.1651      .9404   .9  1.1       814 600 60019
 824        800 1           1.68      1.024                    16761676
 824        933 1      .01  .12415.204                         21822182
 824        933 2      .01  .12615.428                         21822182
 834        934 1    2.44412.65221.706                          359 359
 839        840 1           6.64         1. .8811.136       839 150 15016
 839        840 2           6.29         1. .8811.136       839 150 15016
 839        898 1     1.13  6.9912.617                          189 318
 839       1047 1     1.22  7.69 13.81                          189 323
 839       2458 1      .22  1.091.8601                          319 413
 839       2458 2      .17  1.032.0537                          356 356
 856        810 1           1.05         1.                    12601260
 856        933 1     .052  .65480.493                         22732273
 856       1060 1     .056  .69785.746                         21822182
 895        122 1     .308 3.958444.84                         12992252
 895        122 2     .308 3.958444.84                         12992252
 896        897 1      .05   .73 78.06                         16371637
 897        808 1           1.02      1.024                    13441478
 898        848 1           6.36         1. .8811.136       898 150 15016
 898       1047 1      .15   .891.6317                          324 324
 933        895 1       .2  2.55312.72                         21102110
 933        955 1     .162 2.048250.17                         21102110
 933        959 1       .2  2.69 336.4                         21822182
 934        933 1 T   .031 1.207      .9562   .9  1.1       934 672 80619
 934       1047 1    3.04515.73827.123                          319 319
 934       1047 2    3.04115.71827.089                          319 319
 938        955 1    .25562.9224 360.4                         20372037
 938        959 1     .127 1.603195.89                         12661266
 939        938 1 T   .031  1.15      .9337   .9  1.1       939 672 80619
 939        938 2 T   .032 1.163      .9337   .9  1.1       939 672 80619
 939        938 3          1.277      .9337   .9  1.1       939 672 67219
 939       1015 1 T  1.271 6.56211.305                          306 319
 939       1015 2 T  1.283 6.56411.522                          306 319
 955        964 1    .18772.3467287.24                         16881688
 959        895 1      .05   .44 47.58                         21102110
 960        834 1     2.2111.47519.687                          319 319
 960        959 1 T   .032 1.163      .9629   .9  1.1       960 672 80619
 960        959 2 T   .031 1.166      .9629   .9  1.1       960 672 80619
 960       1015 1    1.892 9.77616.845                          319 319
 960       1015 2    1.895 9.70417.029                          319 319
 964        976 1    .0733 .9164112.17                         16881688
 965        964 1 T    .02 1.211       .956   .9  1.1       965 672 80619
 965        964 2 T    .02 1.233       .956   .9  1.1       965 672 80619
 976        995 1     .282 3.852 493.7                         16881688
 995        904 1 T       1.1538         1.                    16251625
 995        964 1    .16433.0339354.88                         21822182
 995       1030 1     .073   .92112.26                         21822182
 995       1060 1     .172  2.17265.16                         21102110
1030        915 1 T       2.0655         1.                    12541254
1030        955 1     .047   .5971.818                         21822182
1047        919 1 T       1.7022      1.025                     788 788
1060        897 1     .076 1.171124.58                         23702681
1060        925 1 T        1.515      1.024                    14021402
1210        976 1 T    .03 1.219      .9935   .9  1.1      1210 672 80619
1210        976 2 T   .039 1.138      .9935   .9  1.1      1210 672 80619
1210        976 3 T   .036 1.217      .9935   .9  1.1      1210 672 80619
1503       1504 1            5.2      .9859  .95  1.1      1503 300 30013
2458        896 1           1.27       .991   .9  1.1      2458 600 60019
4501       4522 1     3.76 20.68 35.66                          287 287
4501       4522 2     1.64 12.46  61.5                          239 239
4521       4523 1          20.71         1.
4522       4521 1     1.53   7.6 14.25                          200 200
4522       4532 1     3.25 17.92 32.75                          287 287
4522       4532 2     3.25 17.92 32.75                          287 287
4522       4623 1           7.95         1.                     100 100
4522       4623 2           7.95         1.                     100 100
4532       4530 1           14.3         1.
4532       4533 1            8.6         1.                     100 100
4532       4533 2            8.6         1.                     100 100
4532       4533 3            8.6         1.                     100 100
4532       4542 1     1.62  9.68 19.15                          150 150
4533       4596 1         3.7635         1.
4542       4552 1     1.83 10.93  18.6                          150 150
4552       4572 1      1.4  8.38   17.                          150 150
4562       4572 1      .94  5.5910.644                          150 150
4562       4582 1     1.24  7.38 13.28                          150 150
4592         21 1            6.4         1.
4592       4542 1       1.  6.17  12.6                          239 239
4623       4533 1    17.06  45.5 11.39                          100 100
4703       4533 1       .9  2.31   .58                          100 100
4703       4533 2       .9  2.31   .58                          100 100
4805       4804 1         13.333         1.                     138 138
4805       4807 1    3.089 8.134 2.085                           86  86
4805       4807 2    3.089 8.134 2.085                           86  86
4862       4532 1     2.57 23.68 97.42                          556 697
4862       4532 2     2.57 23.68 97.42                          556 697
4862       4807 1           4.05         1.                     300 300
9085        210 1           .001                               35004200
9085       9049 1         .71475      1.013                    10501050
9086       1060 1           .001                               35004200
9086       9048 1         .71475      1.013                    10501050
99999
DGER
(No ) O (Pmn ) (Pmx ) ( Fp) (FpR) (FPn) (Fa) (Fr) (Ag) ( Xq) (Sno) (Est)
  12        0. 10000    0.  100.
  16        0. 10000    0.  100.
  18        0. 10000    0.  100.
  20        0. 10000    0.  100.
  21        0. 10000    0.  100.
  22        0. 10000    0.  100.
  35        0. 10000    0.  100.
  48        0. 10000    0.  100.
 300        0. 10000    0.  100.
 301        0. 10000    0.  100.
 302        0. 10000    0.  100.
 303        0. 10000    0.  100.
 305        0. 10000    0.  100.
 500        0. 10000    0.  100.
 800        0. 10000    0.  100.
 808        0. 10000    0.  100.
 810        0. 10000    0.  100.
 904        0. 10000    0.  100.
 915        0. 10000    0.  100.
 919        0. 10000    0.  100.
 925        0. 10000    0.  100.
4523        0. 10000    0.  100.
4596        0. 10000    0.  100.
4804        0. 10000    0.  100.
9048        0. 1000.    0.  100.
9049        0. 1000.    0.  100.
99999
DCAR
(tp) (no) C (tp) (no) C (tp) (no) C (tp) (no) O (A) (B) (C) (D) (Vfl)
99999
DCER
(No ) O Gr Un (Kb ) (Incl) ( Qg)( Qn)( Qm) C E L
 4530   10  1  4530  .1E-5 -8.96-54.563.96
99999
DGLT
(G (Vmn) (Vmx)
 D   .95  1.05
 C   .95  1.07
 A   .95   1.1
 B   .95  1.08
99999
DARE
(Ar)    (Xchg)     (      Identificacao da area       ) (Xmin) (Xmax)
   1        0.     AREA SUDESTE
   2        0.     AREA SUL
   3        0.     AREA MATO GROSSO
   9        0.     MODELO DE ELO CC
99999
DELO
(No) O ( V ) ( P ) (   Identificacao  ) M
   1    600. 1566.                      N
   2    600. 1566.                      N
99999
DCBA
(No) O TP(   Nome   )G( Vd)                                      ( Rs)(Elo
  10   1+RET+ELO01     600.                                              1
  20    +INV+ELO01    586.9                                              1
  30    0NEU0ELO01R      0.                                              1
  40    0NEU0ELO01I      0.                                              1
  50   1+RET+ELO02     600.                                              2
  60    +INV+ELO02    586.9                                              2
  70    0NEU0ELO02R      0.                                              2
  80    0NEU0ELO02I      0.                                              2
99999
DCLI
(De) O  (Pa)Nc P (  R )( L  )                               (Cn)
  10      20 1 F  10.47
  50      60 1 F  10.47
99999
DCNV
(No) O (CA) (CC) (EL) T p (Ino) (Xc ) (Vfs) (Snt) (Rra) (Lra) (CCC) Fr
   1   9085   10   30 R 4 2610.  17.8 127.4  471.    0.
   2   9086   20   40 I 4 2610.  17.2  122.  450.    0.
   3   9085   50   70 R 4 2610.  17.8 127.4  471.    0.
   4   9086   60   80 I 4 2610.  17.2  122.  450.    0.
99999
DCCV
(No) O F C (Vsp) (Marg (IMax (Dsp) (Dtn) (Dtm) (Tmn) (Tmx) (S (Vmn (Tmh) (Ttr)
   1     P  750.          0.   30.    5. 84.99  .925  1.25     975  1.25    1.
   2   F P  900.    0. .1E-7    5.    5. 72.74  .925  1.25     975  1.25    1.
   3     P  750.          0.   30.    5. 84.99  .925  1.25     975  1.25    1.
   4   F P  900.    0. .1E-7    5.    5. 72.74  .925  1.25     975  1.25    1.
99999
DGBT
(G ( kV)
 0    1.
 A  13.8
 D  345.
 B  500.
 E  230.
 C  440.
 F  138.
99999
DGGB
(G Co Es
 0  0  1
 A  0  1
 D  0  1
 B  0  1
 E  0  1
 C  0  1
 F  0  1
99999
FIM
